<?xml version="1.0" encoding="UTF-8"?>

<!-- generated on 2025-04-07 07:26:27.647732 by osmWebWizard.py v1_22_0+1127-914c8c69f4a
  options: 
-->

<additional xmlns:xsi="http://www.w3.org/2001/XMLSchema-instance" xsi:noNamespaceSchemaLocation="http://sumo.dlr.de/xsd/additional_file.xsd">
   <edgeData id="wizard_example" period="3600" file="edgeData.xml"/>
</additional>
